LAMMPS (29 Aug 2024)
Loaded 1 plugins from /scratch/network/yp0007/GEO419_Lec3/software/deepmd-kit/lib/deepmd_lmp
# sample LAMMPS input script for diffusion of 2d LJ liquid
# mean-squared displacement via compute msd

# settings

variable	x equal 40
variable	y equal 40

variable	rho equal 0.6
variable        t equal 1.0
variable	rc equal 2.5

# problem setup

units		lj
dimension	2
atom_style	atomic
neigh_modify	delay 0 every 1

lattice         sq2 0.6
Lattice spacing in x,y,z = 1.8257419 1.8257419 1.8257419
region          simbox block 0 $x 0 $y -0.1 0.1
region          simbox block 0 40 0 $y -0.1 0.1
region          simbox block 0 40 0 40 -0.1 0.1
create_box      1 simbox
Created orthogonal box = (0 0 -0.18257419) to (73.029674 73.029674 0.18257419)
create_atoms    1 box
Created 3200 atoms

pair_style      lj/cut 2.5
pair_coeff      * * 1 1

mass            * 1.0
velocity        all create $t 97287
velocity        all create 1 97287

fix             1 all nve
fix	        2 all langevin $t $t 0.1 498094
fix	        2 all langevin 1 $t 0.1 498094
fix	        2 all langevin 1 1 0.1 498094
fix	        3 all enforce2d

# equilibration run

thermo          100
run	        5000
Generated 0 of 0 mixed pair_coeff terms from geometric mixing rule
Step          Temp          E_pair         E_mol          TotEng         Press
0   1             -1.56492        0             -0.5652325     -1.5346995
Averages over the last 26 of 51 rows, steps 2500 to 5000:
Temp E_pair E_mol TotEng Press
1.00137 -1.58768 0 -0.586629 0.984869
Loop time of 2.46269 on 1 procs for 5000 steps with 3200 atoms

unfix		2

# data gathering run

reset_timestep  0

# factor of 4 in 2 variables is for 2d

compute         msd all msd com yes
variable        twopoint equal c_msd[4]/4/(step*dt+1.0e-6)
fix             9 all vector 10 c_msd[4]
variable        fitslope equal slope(f_9)/4/(10*dt)

thermo_style	custom step temp c_msd[4] v_twopoint v_fitslope

# only need to run for 10K steps to make a good 100-frame movie

dump	        1 all custom 10 traj.dump id type x y z

#dump		2 all image 100 image.*.jpg type type zoom 1.6 adiam 1.2

thermo          100
run	        10000
Generated 0 of 0 mixed pair_coeff terms from geometric mixing rule
Step          Temp         c_msd[4]      v_twopoint     v_fitslope
0   0.97356247     1.0108464e-28  2.5271159e-23  5e+20
Averages over the last 51 of 101 rows, steps 5000 to 10000:
Temp c_msd[4] v_twopoint v_fitslope
0.989992 41.6278 0.274608 0.277762
Loop time of 8.0418 on 1 procs for 10000 steps with 3200 atoms
